MatPowerImport/data/cx195.m
function mpc = cx195
% Exported from RastrWin file "cx195.rg2"
% with MatPowerImport tool : https://github.com/mashalov/MatPowerImport
% This is a relatively old model, but a simplified actual model of the Ural power system, provided to the RastrWin developers for use as a demo and test model
% More info https://www.rastrwin.ru
%
mpc.version = '2';
mpc.baseMVA = 100;
mpc.bus = [
%       Id Tpe           Pd           Qd           Gs           Bs    area           Vm           Va       baseKv    zone         Vmax         Vmin
       805   3            0            0            0           -0       7            1            0          500       0            0            0;
         1   2            0      63.6092      0.70304     -353.142       7      1.00021     -35.3269          520       0            0            0;
         4   2        144.5        168.5            0     -176.571       7      1.02745     -35.0919          520       0            0            0;
        11   2            0      95.9956            0     -353.142       7      1.01302     -34.7308          520       0            0            0;
        21   2            0      46.0008            0           -0       7      1.00017     -43.1856          520       0            0            0;
        29   2            0      95.9868            0     -353.142       7       1.0172      -36.289          520       0            0            0;
       801   2          400            0            0           -0       7            1     -57.2118          500       0            0            0;
       803   2            0            0            0           -0       7            1      -38.571          520       0            0            0;
       804   2      14.0002            0            0           -0       7            1     -9.67723          505       0            0            0;
       806   2            0            0            0           -0       7            1     -69.5925          500       0            0            0;
       807   2          304            0            0           -0       7            1     -6.16962          511       0            0            0;
       809   2          760            0            0           -0       7            1     -10.0502          520       0            0            0;
       811   2            0            0            0           -0       7            1      26.9283          520       0            0            0;
       812   2         1100            0            0           -0       7            1      3.33521          520       0            0            0;
       813   2           79            0            0           -0       7            1     -12.2049          520       0            0            0;
       814   2            0            0            0           -0       7            1     -50.1951        519.9       0            0            0;
       816   2        223.3            0            0           -0       7     0.967843      -18.198        235.9       0            0            0;
       831   2            0            0            0           -0       7            1      27.0746          520       0            0            0;
       832   2         1630      149.259            0           -0       7            1     -60.2135          500       0            0            0;
       837   2          405            0            0           -0       7            1     -15.9865          505       0            0            0;
      1112   2        191.3      22.3176            0           -0       7            1     -39.5784          230       0            0            0;
      1140   2            0            0            0           -0       7     0.971823     -38.3122          240       0            0            0;
      1327   2            0            0            0           -0       5     0.994688     -35.8682          240       0            0            0;
      1328   2            0            0            0           -0       5     0.999038     -32.2283          240       0            0            0;
      1401   2            0            0            0           -0       1            1     -41.5382          240       0            0            0;
      1440   2      49.3359            0            0           -0       1            1     -60.1397          220       0            0            0;
      1505   2       111.09            0            0           -0       2            1     -46.1453        233.3       0            0            0;
      1520   2            0            0            0           -0       2     0.998366     -47.3056        235.2       0            0            0;
      1521   2            0            0            0           -0       2     0.973602     -45.2951          240       0            0            0;
      1605   2      149.817      61.0001            0           -0       3      1.07429     -60.6357          220       0            0            0;
      1636   2      151.485            0            0           -0       3     0.998919     -64.3214          230       0            0            0;
      1670   2      51.4164      19.9993            0           -0       3      1.00243      -63.877          230       0            0            0;
      1676   2      68.2095      28.4912            0           -0       3            1     -65.4072          230       0            0            0;
      1679   2      77.0206      34.0002            0           -0       3      1.03286     -58.9276          230       0            0            0;
      1685   2            0            0            0           -0       3            1     -57.6522          240       0            0            0;
      1712   2      29.7586            0            0           -0       4            1     -50.1156          230       0            0            0;
      1730   2            0            0            0           -0       4            1     -45.2711        237.2       0            0            0;
         2   1            0            0            0           -0       7      1.03956     -39.9045          508       0            0            0;
         3   1            0            0            0     -338.759       7      1.04847     -39.3883        509.3       0            0            0;
         5   1            0            0            0     -533.796       7      1.01758     -38.4164          522       0            0            0;
         6   1            0            0     0.671759           -0       7      1.02101     -49.2787        508.3       0            0            0;
         7   1            0            0            0           -0       7      1.04536     -53.6503        498.5       0            0            0;
         9   1            0            0            0     -173.865       7     0.997349     -45.4387          516       0            0            0;
        10   1            0            0            0      -174.27       7      1.00596     -43.2359        516.6       0            0            0;
        12   1            0            0            0           -0       7      1.03003     -39.2262        512.2       0            0            0;
        14   1            0            0            0     -342.494       7      1.05168       -42.14        512.1       0            0            0;
        17   1            0            0            0     -164.231       7      1.00611     -47.8154        501.5       0            0            0;
        18   1            0            0            0           -0       7      1.02333     -45.9409        510.4       0            0            0;
        19   1            0            0    0.0950366           -0       7      1.01565     -42.9106        513.8       0            0            0;
        20   1            0            0            0           -0       7      1.00947     -43.9027        517.7       0            0            0;
        22   1            0            0            0           -0       7      1.02371     -37.0999        515.5       0            0            0;
        23   1            0            0            0     -169.845       7      1.05778     -45.0829          510       0            0            0;
        25   1            0            0            0           -0       7       1.0256     -38.2667          520       0            0            0;
        27   1            0            0            0     -339.691       7      1.04614     -37.6125          510       0            0            0;
        28   1            0            0            0           -0       7       1.0306     -33.9572          520       0            0            0;
        30   1            0            0            0     -339.691       7      1.04833     -38.8059          510       0            0            0;
        31   1            0            0            0           -0       7      1.03138     -51.9442          500       0            0            0;
        40   1            0            0            0     -179.983       7       1.0207     -45.8754          525       0            0            0;
        42   1      64.9999      12.0003            0           -0       7       1.0064       -36.75          520       0            0            0;
        43   1           65      9.99972            0           -0       7      1.01626      -37.807          520       0            0            0;
        47   1            0            0            0           -0       7     0.993017     -44.6137          520       0            0            0;
        90   1            0            0            0           -0       7      1.03296     -38.6028          520       0            0            0;
        91   1            0            0            0           -0       7      1.03182     -38.5871          520       0            0            0;
       802   1          306      158.999            0           -0       7      1.00531     -29.7542        498.4       0            0            0;
       808   1           98          412            0           -0       7      1.00006      -8.0924        501.1       0            0            0;
       810   1          415          190            0           -0       7     0.997253      6.85928        502.4       0            0            0;
       815   1      87.8997      73.9998            0      41.9497       7     0.945478     -43.9462          230       0            0            0;
       817   1           73      13.9998            0           -0       7     0.968458     -15.9354        236.8       0            0            0;
       819   1      94.2997      53.3997            0           -0       7     0.925619      -44.133          230       0            0            0;
       820   1          650      211.001            0           -0       7     0.955324     -75.1305          223       0            0            0;
       825   1          115      25.9995            0      39.2938       7     0.949285      -79.417        222.6       0            0            0;
       833   1          386          115            0           -0       7     0.999932     -62.4142        496.7       0            0            0;
       836   1          375          262            0           -0       7     0.999955     -2.02376        498.6       0            0            0;
       840   1            0            0            0           -0       7       1.0382     -70.0946          520       0            0            0;
       853   1         99.7      44.3001            0           -0       7     0.950736     -45.8668          230       0            0            0;
       854   1            0            0            0           -0       7      1.01949     -40.8101          230       0            0            0;
       856   1        155.7         77.8            0           -0       7     0.987864     -42.9878          230       0            0            0;
      1131   1        116.4      65.1998            0           -0       7      1.00223     -38.9106        231.7       0            0            0;
      1203   1           90      26.6002            0           -0       7     0.898906     -39.1862          230       0            0            0;
      1207   1           74      30.4999            0           -0       7      1.02922     -40.4307        202.2       0            0            0;
      1260   1          105      29.9999            0           -0       7     0.901229      -38.942          230       0            0            0;
      1301   1           14      1.00019            0           -0       5      1.07292     -43.1304          220       0            0            0;
      1302   1           14     -1.99953            0           -0       5      1.00825     -43.0586        234.3       0            0            0;
      1303   1           14      -2.0005            0           -0       5      1.00819     -44.1909        235.1       0            0            0;
      1304   1           14     -2.00093            0           -0       5      1.00454     -44.8164        236.2       0            0            0;
      1306   1          167      41.9999            0           -0       5      1.00952      -41.614        232.4       0            0            0;
      1308   1           93      25.0003            0           -0       5      1.01408     -44.9921        223.3       0            0            0;
      1321   1            0            0            0           -0       5      1.00663      -44.004        235.6       0            0            0;
      1325   1            0            0            0           -0       5      1.00574     -44.7294        235.9       0            0            0;
      1402   1      99.2892      26.0944            0           -0       1     0.990281      -44.431        232.7       0            0            0;
      1403   1      103.788      20.6955            0           -0       1     0.986993     -44.4208          230       0            0            0;
      1405   1      25.8967      8.99778            0           -0       1     0.997895     -42.4358          238       0            0            0;
      1410   1       47.994      8.99845            0           -0       1      1.00576     -44.9946        224.5       0            0            0;
      1411   1      14.8496       1.7991            0           -0       1     0.985434     -44.4374          230       0            0            0;
      1416   1      163.612      63.8857            0           -0       1     0.998809     -42.0106        238.6       0            0            0;
      1418   1      267.879      46.7891            0           -0       1     0.997392     -42.3287        235.9       0            0            0;
      1420   1      159.183       50.389            0           -0       1     0.981582     -46.7412          233       0            0            0;
      1421   1            0            0            0           -0       1     0.991643     -41.1966        235.3       0            0            0;
      1422   1      141.873      43.1907            0           -0       1     0.987101     -47.9375        229.7       0            0            0;
      1425   1            0            0            0           -0       1      1.00626     -42.0422          230       0            0            0;
      1426   1      44.5488 -0.000640018            0           -0       1     0.990234     -43.7287          230       0            0            0;
      1427   1      73.8909      29.6943            0           -0       1     0.998323     -51.8172        223.5       0            0            0;
      1429   1      184.729      54.8876            0           -0       1      1.03661     -43.7534          220       0            0            0;
      1431   1      319.053      78.2806            0           -0       1     0.979202     -48.6947        232.4       0            0            0;
      1432   1      139.183      52.1882            0           -0       1       1.0064     -59.8438        216.7       0            0            0;
      1433   1      89.9997  0.000343049            0           -0       1      1.01235     -55.9354        220.4       0            0            0;
      1434   1      151.682      42.2907            0           -0       1      1.00687      -43.834        225.6       0            0            0;
      1435   1       307.56      91.7799            0           -0       1      1.03571     -43.4811          220       0            0            0;
      1436   1      219.168      75.5823            0           -0       1      0.98496     -53.2906        227.5       0            0            0;
      1438   1      135.879      43.1904            0           -0       1      1.02168     -57.1476        216.2       0            0            0;
      1441   1            0            0            0           -0       1     0.971978     -56.0437          230       0            0            0;
      1443   1      139.171      43.1902            0           -0       1     0.961617      -56.917        223.7       0            0            0;
      1445   1      160.183      48.5895            0           -0       1      1.00135     -47.5356        219.2       0            0            0;
      1449   1      151.681      44.0902            0           -0       1      1.00938     -44.7588          224       0            0            0;
      1450   1       164.98      34.1927            0           -0       1     0.995702     -43.3619        229.7       0            0            0;
      1451   1      14.8504      1.79916            0           -0       1     0.980741     -45.1056          230       0            0            0;
      1452   1      169.192      37.7918            0           -0       1     0.997046     -43.1596        229.7       0            0            0;
      1453   1      133.183       16.196            0           -0       1     0.986647     -41.9266        235.2       0            0            0;
      1463   1      118.797      4.49872            0           -0       1     0.988472      -44.355          230       0            0            0;
      1467   1      143.953      49.4888            0           -0       1     0.995538      -42.309        237.7       0            0            0;
      1471   1      101.737      21.5958            0           -0       1     0.979926     -44.9565          230       0            0            0;
      1487   1            0            0            0           -0       1     0.988235     -49.4259          230       0            0            0;
      1488   1      126.879      29.6933            0           -0       1      1.00094     -47.4321          220       0            0            0;
      1500   1  -0.00039063  -0.00138439         0.09         49.5       2       1.0516     -46.2258          500       0            0            0;
      1501   1           15 -0.000579196            0           -0       2      1.06565     -47.6303          220       0            0            0;
      1502   1      30.0001  0.000218022            0           -0       2      1.01416     -46.2551          230       0            0            0;
      1503   1            0            0            0           -0       2     0.960477     -50.0234        233.1       0            0            0;
      1504   1            0            0            0           -0       2      1.00025      -46.402        232.9       0            0            0;
      1506   1            0            0            0           -0       2     0.969199     -46.0674        235.4       0            0            0;
      1507   1           15  0.000235524            0           -0       2      1.03381     -46.6375          220       0            0            0;
      1508   1      29.9999   -0.0771459            0           -0       2      1.06653     -47.4614          220       0            0            0;
      1509   1          139      49.9228            0           -0       2      1.00088     -47.8622        233.1       0            0            0;
      1510   1          238      44.0001            0           -0       2     0.987826     -53.9545        219.6       0            0            0;
      1511   1          114           31            0           -0       2     0.979793     -54.8512          220       0            0            0;
      1512   1           60  5.81995e-05            0           -0       2     0.987505     -53.9323        219.8       0            0            0;
      1513   1            0            0            0           -0       2     0.948589     -53.2259          230       0            0            0;
      1514   1          120      5.00003            0           -0       2     0.981646     -46.5916          230       0            0            0;
      1515   1           61      15.0005            0           -0       2     0.967381     -55.9084          220       0            0            0;
      1516   1            0            0            0           -0       2     0.976607      -45.763        231.8       0            0            0;
      1517   1           80      24.9998            0           -0       2     0.976058     -52.4441        224.3       0            0            0;
      1518   1           30  9.42415e-08            0           -0       2       1.0319     -46.9385          220       0            0            0;
      1519   1          272      41.9959            0           -0       2     0.977947     -48.6059          230       0            0            0;
      1522   1           96      17.0003            0           -0       2      1.00024     -46.5418        232.7       0            0            0;
      1523   1          154      41.9993            0           -0       2      1.02219     -46.4948          220       0            0            0;
      1524   1      10.0003      4.99956            0           -0       2      1.00117      -46.526           11       0            0            0;
      1525   1      147.999      16.9952            0           -0       2     0.974112     -49.8246          230       0            0            0;
      1526   1          160  1.16933e-06            0           -0       2      0.94599     -53.7128          230       0            0            0;
      1531   1          326      90.0008            0           -0       2     0.970102     -46.3764        235.1       0            0            0;
      1535   1          157      45.9997            0           -0       2     0.972574     -47.9202        233.9       0            0            0;
      1536   1      61.9998      10.9232            0           -0       2      1.00232     -47.5692        233.8       0            0            0;
      1537   1      120.999       32.922            0           -0       2      1.00444     -48.1497        232.3       0            0            0;
      1539   1          104      26.0005            0           -0       2     0.972258      -47.475        230.4       0            0            0;
      1540   1      45.0001      9.00065            0           -0       2     0.967765     -48.9638        231.8       0            0            0;
      1541   1      51.0001      10.0005            0           -0       2      1.00608     -48.3864        231.5       0            0            0;
      1542   1          127      22.0001            0           -0       2      0.96877     -47.2963        232.6       0            0            0;
      1543   1          143      50.9998            0           -0       2     0.972153     -47.4675        230.1       0            0            0;
      1544   1          244           69            0           -0       2     0.980295     -46.2042        230.1       0            0            0;
      1545   1          178      37.9993            0           -0       2     0.987496     -47.6006        224.8       0            0            0;
      1547   1          207          116            0           -0       2     0.983699     -48.5656        222.1       0            0            0;
      1550   1          118      28.0011            0           -0       2      1.07011     -51.8333        207.1       0            0            0;
      1551   1      95.9999      16.9995            0           -0       2      1.01357     -51.1667          220       0            0            0;
      1557   1      19.0002      1.99989            0           -0       2     0.961152      -50.058        232.9       0            0            0;
      1562   1          168      44.0001            0           -0       2     0.969956     -46.3094        235.3       0            0            0;
      1564   1      48.0001      2.00001            0           -0       2     0.971604     -50.5506        229.9       0            0            0;
      1565   1           75      5.00024            0           -0       2      1.01087     -48.8789          230       0            0            0;
      1568   1            0            0            0           -0       2     0.934366     -56.7674          230       0            0            0;
      1569   1          183      43.9996            0           -0       2     0.955093     -56.9102        224.6       0            0            0;
      1570   1          154      38.0002            0           -0       2     0.985397     -54.0136        219.9       0            0            0;
      1579   1           71      26.9997            0           -0       2     0.902288     -57.5504          230       0            0            0;
      1580   1            0            0            0           -0       2     0.970776     -46.1254        235.1       0            0            0;
      1582   1      48.0001      7.00009            0           -0       2      1.00709     -47.7666        232.6       0            0            0;
      1583   1           74      9.00042            0           -0       2      0.97606      -46.666          233       0            0            0;
      1586   1           77      12.0004            0           -0       2      0.98154     -47.0228        231.2       0            0            0;
      1592   1      30.0001 -0.000442976            0           -0       2     0.977656     -48.8091          230       0            0            0;
      1622   1      96.0002      28.0003            0           -0       3      1.00286      -60.752          220       0            0            0;
      1627   1      50.9998      10.9987            0           -0       3      1.04719      -63.938        222.8       0            0            0;
      1632   1          489      58.9985            0           -0       3      1.03099     -58.5707          220       0            0            0;
      1668   1            0            0            0           -0       3      1.02001      -62.306          230       0            0            0;
      1669   1      21.9998      7.99905            0           -0       3      1.00382     -64.0552        229.8       0            0            0;
      1675   1      69.0003      26.0007            0           -0       3     0.947153     -63.3002          230       0            0            0;
      1680   1            0            0            0           -0       3      1.05913     -59.1403          225       0            0            0;
      1684   1            0            0            0           -0       3      1.03874     -60.8726        227.5       0            0            0;
      1690   1      83.9998      24.9998            0           -0       3      1.01757     -62.6022        215.2       0            0            0;
      1704   1           89      30.0002            0           -0       4     0.990543     -42.9292        225.3       0            0            0;
      1706   1          109      9.00089            0     -90.3532       4      1.02858     -45.3305          230       0            0            0;
      1708   1           40   0.00027982            0           -0       4     0.995947      -52.331          230       0            0            0;
      1709   1      79.9998 -0.000335036            0           -0       4      1.00484     -52.2531          230       0            0            0;
      1710   1          129      19.9996            0           -0       4     0.975634     -52.7692        234.5       0            0            0;
      1714   1          119      16.9993            0           -0       4     0.955611     -53.1972        239.6       0            0            0;
      1716   1          149      23.0002            0           -0       4      1.00502     -52.1103        229.5       0            0            0;
      1720   1           74      46.0005            0      45.6007       4     0.935481     -56.5106        239.8       0            0            0;
      1722   1           36      31.0004            0           -0       4     0.984496     -47.3263        237.2       0            0            0;
      1724   1           80 -0.000132083            0           -0       4     0.999068     -52.6413          230       0            0            0;
      1740   1            0            0            0           -0       4      1.01823     -48.4909          230       0            0            0;
      1926   1          132           81            0           -0       7      1.06148     -40.8227        208.9       0            0            0;
      1938   1          130           75            0           -0       7      1.02836     -39.3812        222.5       0            0            0;
      2001   1            0            0            0           -0       7     0.980232     -48.5365          230       0            0            0;
];

mpc.branch = [
%     fbus       tbus            r            x            b        rateA        rateB        rateC        ratio        angle sta       angmin       angmax
         1          6    0.0026319    0.0274801      2.29948            0            0            0       0.9775            0   1            0            0;
         1         19   0.00242433    0.0248873      2.16472            0            0            0     0.988077            0   1            0            0;
         1         42  0.000554734   0.00517751     0.484016            0            0            0            1            0   1            0            0;
         2         12  0.000609878   0.00590819     0.508955            0            0            0      1.00827            0   1            0            0;
         2         30   0.00276819    0.0252597      2.28367            0            0            0      1.00394            0   1            0            0;
         2         43   0.00118343    0.0122041      1.11405            0            0            0      1.02362            0   1            0            0;
         3         12   0.00266818    0.0282065      2.52119            0            0            0      1.00569            0   1            0            0;
         3         14   0.00263112    0.0261206      2.25531            0            0            0       1.0055            0   1            0            0;
         3         30  0.000553628   0.00499804      0.45778            0            0            0      1.00137            0   1            0            0;
         3         91  0.000443788   0.00462279     0.405599            0            0            0      1.02101            0   1            0            0;
         4          5   0.00238548    0.0229006      2.66487            0            0            0      1.00385            0   1            0            0;
         4         28  0.000295858   0.00284763     0.267696            0            0            0            1            0   1            0            0;
         4         91   0.00214497    0.0192308       2.4336            0            0            0            1            0   1            0            0;
         5         14   0.00381321    0.0343189      3.01846            0            0            0     0.981034            0   1            0            0;
         5         27   0.00319108    0.0290657      2.52297            0            0            0     0.977011            0   1            0            0;
         5        803   0.00157914    0.0139793      5.09704            0            0            0     0.996169            0   1            0            0;
         6          7   0.00217302    0.0217302      1.68236            0            0            0      0.98072            0   1            0            0;
         6         18   0.00145869    0.0153546      1.20094            0            0            0      1.00413            0   1            0            0;
         6         31      0.00178      0.01624          1.3            0            0            0     0.983671            0   1            0            0;
         7         18   0.00353155    0.0360832      2.94896            0            0            0      1.02387            0   1            0            0;
         9         17   0.00170973    0.0154273      1.24745            0            0            0     0.971899            0   1            0            0;
         9         20   0.00059698   0.00671602     0.536032            0            0            0      1.00329            0   1            0            0;
         9         21  0.000628696   0.00584687      0.54621            0            0            0      1.00775            0   1            0            0;
        10         19  0.000984884   0.00882608     0.786691            0            0            0      0.99458            0   1            0            0;
        10         21  0.000258875   0.00229289     0.213617            0            0            0      1.00658            0   1            0            0;
        10         29   0.00218194    0.0225591      1.93067            0            0            0      1.00658            0   1            0            0;
        11         18   0.00172739    0.0178497      1.40674            0            0            0     0.981538            0   1            0            0;
        11         19   0.00162885    0.0168946      1.38067            0            0            0     0.988077            0   1            0            0;
        11         22   0.00203206   0.00730036     0.318888            0            0            0     0.991346            0   1            0            0;
        11         25   0.00114645     0.010318     0.876096            0            0            0            1            0   1            0            0;
        12         29   0.00110947    0.0108728     0.995069            0            0            0      1.01523            0   1            0            0;
        12         42   0.00118343    0.0107249      1.01941            0            0            0      1.01523            0   1            0            0;
        14         23   0.00461361     0.041907        3.644            0            0            0     0.995899            0   1            0            0;
        17         47    0.0012574    0.0114645       1.0816            0            0            0      1.03689            0   1            0            0;
        18         19   0.00193188    0.0176142      1.57074            0            0            0      1.00666            0   1            0            0;
        19         20   0.00100741   0.00925326     0.852283            0            0            0      1.00759            0   1            0            0;
        20         21  0.000554731   0.00554731     0.492131            0            0            0      1.00444            0   1            0            0;
        20         29   0.00236685    0.0242972      2.21729            0            0            0      1.00444            0   1            0            0;
        21         47  0.000554734   0.00517751      0.48672            0            0            0            1            0   1            0            0;
        22         29   0.00033284   0.00303254     0.294736            0            0            0      1.00873            0   1            0            0;
        22         43  0.000369822    0.0033284       0.4056            0            0            0      1.00873            0   1            0            0;
        23         40   0.00123356    0.0112472      1.09423            0            0            0      1.02941            0   1            0            0;
        25         40   0.00504313    0.0461138       4.0737            0            0            0      1.00962            0   1            0            0;
        27         90   0.00213019    0.0190127      2.35247            0            0            0      1.01961            0   1            0            0;
        28        837   0.00572493    0.0521517      4.35328            0            0            0     0.971154            0   1            0            0;
        29         30   0.00157632    0.0211457       4.1616            0            0            0     0.980769            0   1            0            0;
        30         90  0.000443789    0.0046228     0.405598            0            0            0      1.01961            0   1            0            0;
       801        803    0.0020895    0.0196376     0.708448            0            0            0         1.04            0   1            0            0;
       801        832     0.001256       0.0156        1.365            0            0            0            1            0   1            0            0;
       801        833    0.0014592    0.0113088     0.799343            0            0            0       0.9934            0   1            0            0;
       802        803   0.00184911   0.00998524     0.838238            0            0            0      1.04334            0   1            0            0;
       802        804   0.00196058    0.0196058      1.27514            0            0            0      1.01324            0   1            0            0;
       803        814   0.00270074    0.0284873      2.10831            0            0            0     0.999808            0   1            0            0;
       804        805      0.00072       0.0064           -0            0            0            0     0.990099            0   1            0            0;
       804        837   0.00135281    0.0135281      4.23597            0            0            0            1            0   1            0            0;
       805        836    0.0003218   0.00402249     0.348043            0            0            0       0.9972            0   1            0            0;
       806        833   0.00389119    0.0301568      2.12171            0            0            0       0.9934            0   1            0            0;
       806        840   0.00617604     0.056213      2.62829            0            0            0         1.04            0   1            0            0;
       807        808   0.00199123    0.0183193      1.53172            0            0            0     0.980626            0   1            0            0;
       807        836   0.00116652    0.0142396      1.24301            0            0            0     0.975734            0   1            0            0;
       808        809   0.00314351     0.029586      2.70398            0            0            0      1.03772            0   1            0            0;
       809        810   0.00435806    0.0435806      3.78609            0            0            0     0.966154            0   1            0            0;
       810        811   0.00295857    0.0295857      2.97441            0            0            0      1.03503            0   1            0            0;
       811        812   0.00369822    0.0406805       3.5152            0            0            0            1            0   1            0            0;
       811        831   0.00110947    0.0129438        1.352            0            0            0            1            0   1            0            0;
       812        813    0.0033284    0.0295858       2.9744            0            0            0            1            0   1            0            0;
       812        831   0.00406805    0.0369822       3.7856            0            0            0            1            0   1            0            0;
       813        837   0.00352907    0.0313695      2.80527            0            0            0     0.971154            0   1            0            0;
       814        832       0.0012        0.014        1.135            0            0            0     0.961723            0   1            0            0;
       815       1112    0.0249527    0.0903592     0.151294            0            0            0            1            0   1            0            0;
       816        817   0.00178337   0.00713347     0.112147            0            0            0      1.00382            0   1            0            0;
       816       1260    0.0274102      0.12155     0.207368            0            0            0     0.974989            0   1            0            0;
       819       1112    0.0249527    0.0903592     0.151294            0            0            0            1            0   1            0            0;
       820        825    0.0110997    0.0577186    0.0966241            0            0            0     0.998206            0   1            0            0;
       853        854     0.026276    0.0954631     0.159758            0            0            0            1            0   1            0            0;
       854        856   0.00623819    0.0275992     0.049726            0            0            0            1            0   1            0            0;
      1112       1140   0.00173612    0.0059028     0.013248            0            0            0      1.04348            0   1            0            0;
      1131       1140   0.00144096    0.0080208    0.0691203            0            0            0      1.03582            0   1            0            0;
      1131       1704    0.0197005    0.0855002     0.141113            0            0            0     0.972378            0   1            0            0;
      1140       1926    0.0085932    0.0481219     0.235652            0            0            0     0.870417            0   1            0            0;
      1140       1938   0.00252493    0.0146446    0.0950521            0            0            0     0.927083            0   1            0            0;
      1203       1260   0.00113422   0.00415879     0.027508            0            0            0            1            0   1            0            0;
      1207       1260    0.0147449    0.0336485    0.0899296            0            0            0      1.13749            0   1            0            0;
      1207       1938    0.0442371     0.156143     0.233668            0            0            0       1.1004            0   1            0            0;
      1260       1926    0.0524757     0.188363     0.218196            0            0            0     0.908261            0   1            0            0;
      1301       1303    0.0106746    0.0463167    0.0906455            0            0            0      1.06864            0   1            0            0;
      1301       1306     0.011109    0.0481391    0.0912771            0            0            0      1.05636            0   1            0            0;
      1302       1306    0.0118497     0.047584    0.0918166            0            0            0     0.991891            0   1            0            0;
      1302       1321    0.0102689    0.0446789    0.0882564            0            0            0      1.00555            0   1            0            0;
      1303       1325   0.00898487    0.0395334    0.0756828            0            0            0       1.0034            0   1            0            0;
      1304       1321   0.00918797    0.0407153    0.0777103            0            0            0      0.99746            0   1            0            0;
      1304       1706    0.0117202    0.0504726     0.090459            0            0            0     0.973751            0   1            0            0;
      1306       1308    0.0234643    0.0721979     0.124657            0            0            0     0.960843            0   1            0            0;
      1325       1706    0.0117202    0.0504726    0.0904591            0            0            0     0.974989            0   1            0            0;
      1401       1405   0.00388391    0.0135937    0.0271891            0            0            0     0.991667            0   1            0            0;
      1401       1416  0.000702618   0.00421571   0.00853948            0            0            0     0.994167            0   1            0            0;
      1401       1418   0.00314472    0.0179698    0.0361717            0            0            0     0.982917            0   1            0            0;
      1401       1420    0.0130782    0.0475234    0.0836052            0            0            0     0.970833            0   1            0            0;
      1401       1422    0.0216064    0.0780863     0.130322            0            0            0     0.957083            0   1            0            0;
      1401       1467   0.00176987    0.0097343    0.0197755            0            0            0     0.990417            0   1            0            0;
      1401       1514    0.0236295    0.0860112     0.143359            0            0            0     0.958333            0   1            0            0;
      1402       1418    0.0107819    0.0384554    0.0723436            0            0            0      1.01375            0   1            0            0;
      1403       1421    0.0151716    0.0541844     0.100767            0            0            0      1.02304            0   1            0            0;
      1405       1514    0.0226843    0.0812855     0.140714            0            0            0     0.966387            0   1            0            0;
      1410       1411    0.0068053    0.0243857    0.0428489            0            0            0       1.0245            0   1            0            0;
      1410       1449   0.00717474    0.0257095    0.0406426            0            0            0     0.997773            0   1            0            0;
      1410       1451    0.0068053    0.0243857    0.0428489            0            0            0       1.0245            0   1            0            0;
      1411       1435   0.00929753    0.0328512     0.047916            0            0            0     0.956522            0   1            0            0;
      1416       1418   0.00431276    0.0156338    0.0289374            0            0            0     0.988684            0   1            0            0;
      1418       1421   0.00216739    0.0078568    0.0575806            0            0            0     0.997457            0   1            0            0;
      1418       1467    0.0014159    0.0081414    0.0169504            0            0            0      1.00763            0   1            0            0;
      1420       1431    0.0201815    0.0733201     0.128003            0            0            0     0.997425            0   1            0            0;
      1421       1425    0.0181474    0.0657846    0.0962779            0            0            0     0.977476            0   1            0            0;
      1421       1449   0.00856983    0.0408562     0.064727            0            0            0     0.951976            0   1            0            0;
      1421       1453   0.00253077   0.00903848    0.0663828            0            0            0     0.999575            0   1            0            0;
      1422       1431     0.025921    0.0944266      0.16311            0            0            0      1.01175            0   1            0            0;
      1425       1450   0.00435919    0.0147833    0.0949717            0            0            0     0.998696            0   1            0            0;
      1425       1452   0.00341154    0.0123195    0.0205772            0            0            0     0.998696            0   1            0            0;
      1425       1453    0.0072308    0.0253078    0.0459147            0            0            0      1.02261            0   1            0            0;
      1426       1435   0.00268595   0.00991737     0.014036            0            0            0     0.956522            0   1            0            0;
      1427       1431    0.0133309    0.0483245    0.0842554            0            0            0      1.03982            0   1            0            0;
      1427       1436    0.0183554    0.0656929     0.108687            0            0            0       1.0179            0   1            0            0;
      1429       1426    0.0103969    0.0379959    0.0634806            0            0            0      1.04545            0   1            0            0;
      1429       1434    0.0131642    0.0473517    0.0732899            0            0            0      1.02545            0   1            0            0;
      1429       1445    0.0124873    0.0470357    0.0648657            0            0            0     0.996364            0   1            0            0;
      1429       1463   0.00238183   0.00869557    0.0576615            0            0            0      1.04545            0   1            0            0;
      1429       1488     0.014876     0.053719     0.075504            0            0            0            1            0   1            0            0;
      1431       1487   0.00529301    0.0189036      0.03174            0            0            0     0.989673            0   1            0            0;
      1431       1550    0.0223826     0.081137    0.0892121            0            0            0     0.891136            0   1            0            0;
      1431       1551   0.00991737    0.0359504     0.050336            0            0            0     0.946644            0   1            0            0;
      1432       1436    0.0185486    0.0672385     0.107653            0            0            0      1.04984            0   1            0            0;
      1432       1440   0.00413224    0.0152893    0.0212959            0            0            0      1.01523            0   1            0            0;
      1433       1436    0.0119791    0.0425066    0.0688364            0            0            0      1.03221            0   1            0            0;
      1433       1441    0.0035917    0.0132326    0.0222179            0            0            0      1.04356            0   1            0            0;
      1434       1435   0.00123967   0.00475207     0.006776            0            0            0     0.975177            0   1            0            0;
      1435       1471    0.0066162    0.0238183    0.0396753            0            0            0      1.04545            0   1            0            0;
      1436       1443    0.0133888    0.0471607    0.0730609            0            0            0     0.983297            0   1            0            0;
      1436       1487    0.0285445     0.102647     0.171925            0            0            0      1.01099            0   1            0            0;
      1436       1568    0.0223062    0.0805295     0.135424            0            0            0      1.01099            0   1            0            0;
      1438       1441   0.00396975    0.0143667     0.096278            0            0            0      1.06383            0   1            0            0;
      1440       1441    0.0102078    0.0370507    0.0634806            0            0            0      1.04545            0   1            0            0;
      1440       1622    0.0173554    0.0619835     0.088088            0            0            0            1            0   1            0            0;
      1440       1636     0.016068    0.0298674     0.211602            0            0            0      1.04545            0   1            0            0;
      1443       1569    0.0202199    0.0725535     0.114007            0            0            0      1.00402            0   1            0            0;
      1445       1488    0.0161157    0.0584711    0.0822799            0            0            0      1.00365            0   1            0            0;
      1500       1516  0.000348768  -0.00491095           -0            0            0            0      1.07734            0   1            0            0;
      1500       1524 -0.000107881    0.0525867           -0            0            0            0      1.04762            0   1            0            0;
      1451       1471   0.00869565      0.03138     0.052371            0            0            0            1            0   1            0            0;
      1501       1508   0.00123967    0.0053719     0.007744            0            0            0            1            0   1            0            0;
      1501       1582   0.00118292   0.00515682    0.0373311            0            0            0      1.05727            0   1            0            0;
      1502       1505   0.00101049    0.0063202    0.0375557            0            0            0      1.01435            0   1            0            0;
      1503       1525   0.00306238    0.0173913     0.032269            0            0            0     0.986701            0   1            0            0;
      1503       1557  0.000442458   0.00298659           -0            0            0            0     0.999142            0   1            0            0;
      1504       1505  0.000734908   0.00477689      0.03429            0            0            0      1.00172            0   1            0            0;
      1504       1522  0.000443219   0.00262238           -0            0            0            0     0.999141            0   1            0            0;
      1505       1521   0.00105903   0.00583335    0.0495358            0            0            0      1.02872            0   1            0            0;
      1506       1507   0.00202479   0.00888429     0.051304            0            0            0     0.934579            0   1            0            0;
      1506       1531   0.00180923   0.00578955           -0            0            0            0     0.998726            0   1            0            0;
      1506       1542   0.00428814    0.0153412    0.0275924            0            0            0     0.988105            0   1            0            0;
      1506       1562   0.00079471    0.0045154   0.00885857            0            0            0     0.999575            0   1            0            0;
      1506       1580            0    0.0361847           -0            0            0            0     0.998726            0   1            0            0;
      1507       1518   0.00123967    0.0053719     0.007744            0            0            0            1            0   1            0            0;
      1508       1520  0.000741154   0.00292847    0.0060851            0            0            0      1.06909            0   1            0            0;
      1509       1520   0.00198847   0.00759233    0.0619572            0            0            0      1.00901            0   1            0            0;
      1510       1512   0.00082795   0.00269084   0.00386497            0            0            0      1.00091            0   1            0            0;
      1510       1513   0.00213611   0.00769378    0.0555449            0            0            0      1.04736            0   1            0            0;
      1510       1517    0.0113295    0.0407468    0.0638946            0            0            0       1.0214            0   1            0            0;
      1510       1526   0.00453687    0.0164461    0.0275079            0            0            0      1.04736            0   1            0            0;
      1510       1570   0.00144761   0.00537683    0.0077369            0            0            0      1.00137            0   1            0            0;
      1511       1513   0.00453682     0.016446    0.0275082            0            0            0      1.04545            0   1            0            0;
      1511       1569      0.02022    0.0713647     0.112997            0            0            0      1.02091            0   1            0            0;
      1512       1525    0.0240078    0.0862011     0.149177            0            0            0      1.04641            0   1            0            0;
      1513       1526   0.00113422   0.00415879     0.006877            0            0            0            1            0   1            0            0;
      1513       1569     0.026167    0.0931705     0.144273            0            0            0     0.976522            0   1            0            0;
      1513       1570   0.00310199    0.0107536    0.0149904            0            0            0     0.956087            0   1            0            0;
      1513       1579    0.0272212    0.0986768     0.165048            0            0            0            1            0   1            0            0;
      1514       1544   0.00519392     0.018887     0.127071            0            0            0      1.00043            0   1            0            0;
      1514       1547   0.00912253    0.0328411    0.0478486            0            0            0     0.965652            0   1            0            0;
      1515       1517    0.0262373    0.0954084     0.143887            0            0            0      1.01955            0   1            0            0;
      1516       1523   0.00200413   0.00719008     0.010164            0            0            0     0.949094            0   1            0            0;
      1516       1539   0.00904224    0.0327781    0.0552075            0            0            0      0.99396            0   1            0            0;
      1516       1544  0.000755487   0.00283307    0.0412979            0            0            0     0.992666            0   1            0            0;
      1516       1545   0.00296824    0.0130602    0.0828774            0            0            0     0.969802            0   1            0            0;
      1517       1519    0.0147447    0.0529299    0.0920464            0            0            0      1.02541            0   1            0            0;
      1517       1525    0.0147447    0.0529299    0.0920464            0            0            0      1.02541            0   1            0            0;
      1518       1586  0.000187079   0.00187079           -0            0            0            0      1.05091            0   1            0            0;
      1519       1525  0.000189036    0.0378072           -0            0            0            0            1            0   1            0            0;
      1519       1540   0.00316391    0.0135862    0.0252535            0            0            0      1.00783            0   1            0            0;
      1519       1592   0.00198488    0.0111153     0.059777            0            0            0            1            0   1            0            0;
      1519       2001   0.00226843   0.00378072     0.013754            0            0            0            1            0   1            0            0;
...